data_image0
_chemical_formula_structural       C64FeC10H10
_chemical_formula_sum              "C74 Fe1 H10"
_cell_length_a       9.85973
_cell_length_b       9.85973
_cell_length_c       18
_cell_angle_alpha    90
_cell_angle_beta     90
_cell_angle_gamma    120

_space_group_name_H-M_alt    "P 1"
_space_group_IT_number       1

loop_
  _space_group_symop_operation_xyz
  'x, y, z'

loop_
  _atom_site_type_symbol
  _atom_site_label
  _atom_site_symmetry_multiplicity
  _atom_site_fract_x
  _atom_site_fract_y
  _atom_site_fract_z
  _atom_site_occupancy
  C   C1        1.0  0.00000  0.00000  0.26325  1.0000
  C   C2        1.0  0.16667  0.08333  0.26189  1.0000
  C   C3        1.0  0.00000  0.25000  0.26326  1.0000
  C   C4        1.0  0.16667  0.33333  0.25838  1.0000
  C   C5        1.0  0.00000  0.50000  0.26316  1.0000
  C   C6        1.0  0.16667  0.58333  0.26184  1.0000
  C   C7        1.0  0.00000  0.75000  0.26284  1.0000
  C   C8        1.0  0.16667  0.83333  0.26534  1.0000
  C   C9        1.0  0.25000  0.00000  0.26338  1.0000
  C   C10       1.0  0.41667  0.08333  0.26174  1.0000
  C   C11       1.0  0.25000  0.25000  0.25659  1.0000
  C   C12       1.0  0.41667  0.33333  0.25193  1.0000
  C   C13       1.0  0.25000  0.50000  0.25683  1.0000
  C   C14       1.0  0.41667  0.58333  0.25224  1.0000
  C   C15       1.0  0.25000  0.75000  0.26334  1.0000
  C   C16       1.0  0.41667  0.83333  0.26163  1.0000
  C   C17       1.0  0.50000  0.00000  0.26324  1.0000
  C   C18       1.0  0.66667  0.08333  0.26351  1.0000
  C   C19       1.0  0.50000  0.25000  0.25630  1.0000
  C   C20       1.0  0.66667  0.33333  0.25779  1.0000
  C   C21       1.0  0.50000  0.50000  0.24941  1.0000
  C   C22       1.0  0.66667  0.58333  0.25164  1.0000
  C   C23       1.0  0.50000  0.75000  0.25639  1.0000
  C   C24       1.0  0.66667  0.83333  0.25805  1.0000
  C   C25       1.0  0.75000  0.00000  0.26298  1.0000
  C   C26       1.0  0.91667  0.08333  0.26357  1.0000
  C   C27       1.0  0.75000  0.25000  0.26288  1.0000
  C   C28       1.0  0.91667  0.33333  0.26349  1.0000
  C   C29       1.0  0.75000  0.50000  0.25591  1.0000
  C   C30       1.0  0.91667  0.58333  0.26130  1.0000
  C   C31       1.0  0.75000  0.75000  0.25588  1.0000
  C   C32       1.0  0.91667  0.83333  0.26108  1.0000
  C   C33       1.0  0.00000  0.00000  0.73689  1.0000
  C   C34       1.0  0.16667  0.08333  0.73912  1.0000
  C   C35       1.0  0.00000  0.25000  0.73729  1.0000
  C   C36       1.0  0.16667  0.33333  0.74237  1.0000
  C   C37       1.0  0.00000  0.50000  0.73674  1.0000
  C   C38       1.0  0.16667  0.58333  0.73869  1.0000
  C   C39       1.0  0.00000  0.75000  0.73665  1.0000
  C   C40       1.0  0.16667  0.83333  0.73477  1.0000
  C   C41       1.0  0.25000  0.00000  0.73734  1.0000
  C   C42       1.0  0.41667  0.08333  0.73874  1.0000
  C   C43       1.0  0.25000  0.25000  0.74434  1.0000
  C   C44       1.0  0.41667  0.33333  0.74845  1.0000
  C   C45       1.0  0.25000  0.50000  0.74399  1.0000
  C   C46       1.0  0.41667  0.58333  0.74806  1.0000
  C   C47       1.0  0.25000  0.75000  0.73678  1.0000
  C   C48       1.0  0.41667  0.83333  0.73824  1.0000
  C   C49       1.0  0.50000  0.00000  0.73689  1.0000
  C   C50       1.0  0.66667  0.08333  0.73657  1.0000
  C   C51       1.0  0.50000  0.25000  0.74400  1.0000
  C   C52       1.0  0.66667  0.33333  0.74205  1.0000
  C   C53       1.0  0.50000  0.50000  0.75078  1.0000
  C   C54       1.0  0.66667  0.58333  0.74810  1.0000
  C   C55       1.0  0.50000  0.75000  0.74344  1.0000
  C   C56       1.0  0.66667  0.83333  0.74164  1.0000
  C   C57       1.0  0.75000  0.00000  0.73680  1.0000
  C   C58       1.0  0.91667  0.08333  0.73654  1.0000
  C   C59       1.0  0.75000  0.25000  0.73703  1.0000
  C   C60       1.0  0.91667  0.33333  0.73650  1.0000
  C   C61       1.0  0.75000  0.50000  0.74357  1.0000
  C   C62       1.0  0.91667  0.58333  0.73811  1.0000
  C   C63       1.0  0.75000  0.75000  0.74338  1.0000
  C   C64       1.0  0.91667  0.83333  0.73817  1.0000
  Fe  Fe1       1.0  0.49954  0.49895  0.50011  1.0000
  C   C65       1.0  0.60948  0.47285  0.40537  1.0000
  C   C66       1.0  0.61926  0.62536  0.40533  1.0000
  C   C67       1.0  0.46077  0.59957  0.40559  1.0000
  C   C68       1.0  0.35279  0.43125  0.40627  1.0000
  C   C69       1.0  0.44488  0.35317  0.40522  1.0000
  C   C70       1.0  0.53682  0.40002  0.59554  1.0000
  C   C71       1.0  0.37810  0.37484  0.59517  1.0000
  C   C72       1.0  0.38848  0.52705  0.59405  1.0000
  C   C73       1.0  0.55360  0.64673  0.59336  1.0000
  C   C74       1.0  0.64503  0.56800  0.59525  1.0000
  H   H1        1.0  0.71420  0.45103  0.40821  1.0000
  H   H2        1.0  0.73341  0.74543  0.40820  1.0000
  H   H3        1.0  0.42671  0.69611  0.40773  1.0000
  H   H4        1.0  0.21762  0.37017  0.40878  1.0000
  H   H5        1.0  0.39570  0.21908  0.40696  1.0000
  H   H6        1.0  0.57004  0.30310  0.59355  1.0000
  H   H7        1.0  0.26376  0.25491  0.59260  1.0000
  H   H8        1.0  0.28343  0.54848  0.59068  1.0000
  H   H9        1.0  0.60311  0.78061  0.58978  1.0000
  H   H10       1.0  0.78041  0.62845  0.59411  1.0000
