data_image0
_chemical_formula_structural       C64FeC10H10
_chemical_formula_sum              "C74 Fe1 H10"
_cell_length_a       9.85973
_cell_length_b       9.85973
_cell_length_c       18
_cell_angle_alpha    90
_cell_angle_beta     90
_cell_angle_gamma    120

_space_group_name_H-M_alt    "P 1"
_space_group_IT_number       1

loop_
  _space_group_symop_operation_xyz
  'x, y, z'

loop_
  _atom_site_type_symbol
  _atom_site_label
  _atom_site_symmetry_multiplicity
  _atom_site_fract_x
  _atom_site_fract_y
  _atom_site_fract_z
  _atom_site_occupancy
  C   C1        1.0  0.00000  0.00000  0.25457  1.0000
  C   C2        1.0  0.16667  0.08333  0.25455  1.0000
  C   C3        1.0  0.00000  0.25000  0.25415  1.0000
  C   C4        1.0  0.16667  0.33333  0.25239  1.0000
  C   C5        1.0  0.00000  0.50000  0.25455  1.0000
  C   C6        1.0  0.16667  0.58333  0.25437  1.0000
  C   C7        1.0  0.00000  0.75000  0.25496  1.0000
  C   C8        1.0  0.16667  0.83333  0.25648  1.0000
  C   C9        1.0  0.25000  0.00000  0.25561  1.0000
  C   C10       1.0  0.41667  0.08333  0.25448  1.0000
  C   C11       1.0  0.25000  0.25000  0.25204  1.0000
  C   C12       1.0  0.41667  0.33333  0.25012  1.0000
  C   C13       1.0  0.25000  0.50000  0.25186  1.0000
  C   C14       1.0  0.41667  0.58333  0.24988  1.0000
  C   C15       1.0  0.25000  0.75000  0.25546  1.0000
  C   C16       1.0  0.41667  0.83333  0.25428  1.0000
  C   C17       1.0  0.50000  0.00000  0.25471  1.0000
  C   C18       1.0  0.66667  0.08333  0.25429  1.0000
  C   C19       1.0  0.50000  0.25000  0.25174  1.0000
  C   C20       1.0  0.66667  0.33333  0.25207  1.0000
  C   C21       1.0  0.50000  0.50000  0.24852  1.0000
  C   C22       1.0  0.66667  0.58333  0.24943  1.0000
  C   C23       1.0  0.50000  0.75000  0.25145  1.0000
  C   C24       1.0  0.66667  0.83333  0.25193  1.0000
  C   C25       1.0  0.75000  0.00000  0.25392  1.0000
  C   C26       1.0  0.91667  0.08333  0.25424  1.0000
  C   C27       1.0  0.75000  0.25000  0.25399  1.0000
  C   C28       1.0  0.91667  0.33333  0.25426  1.0000
  C   C29       1.0  0.75000  0.50000  0.25111  1.0000
  C   C30       1.0  0.91667  0.58333  0.25380  1.0000
  C   C31       1.0  0.75000  0.75000  0.25098  1.0000
  C   C32       1.0  0.91667  0.83333  0.25373  1.0000
  C   C33       1.0  0.00000  0.00000  0.74524  1.0000
  C   C34       1.0  0.16667  0.08333  0.74610  1.0000
  C   C35       1.0  0.00000  0.25000  0.74594  1.0000
  C   C36       1.0  0.16667  0.33333  0.74791  1.0000
  C   C37       1.0  0.00000  0.50000  0.74511  1.0000
  C   C38       1.0  0.16667  0.58333  0.74565  1.0000
  C   C39       1.0  0.00000  0.75000  0.74421  1.0000
  C   C40       1.0  0.16667  0.83333  0.74339  1.0000
  C   C41       1.0  0.25000  0.00000  0.74481  1.0000
  C   C42       1.0  0.41667  0.08333  0.74576  1.0000
  C   C43       1.0  0.25000  0.25000  0.74879  1.0000
  C   C44       1.0  0.41667  0.33333  0.75026  1.0000
  C   C45       1.0  0.25000  0.50000  0.74841  1.0000
  C   C46       1.0  0.41667  0.58333  0.74987  1.0000
  C   C47       1.0  0.25000  0.75000  0.74445  1.0000
  C   C48       1.0  0.41667  0.83333  0.74541  1.0000
  C   C49       1.0  0.50000  0.00000  0.74504  1.0000
  C   C50       1.0  0.66667  0.08333  0.74529  1.0000
  C   C51       1.0  0.50000  0.25000  0.74843  1.0000
  C   C52       1.0  0.66667  0.33333  0.74748  1.0000
  C   C53       1.0  0.50000  0.50000  0.75121  1.0000
  C   C54       1.0  0.66667  0.58333  0.74960  1.0000
  C   C55       1.0  0.50000  0.75000  0.74794  1.0000
  C   C56       1.0  0.66667  0.83333  0.74732  1.0000
  C   C57       1.0  0.75000  0.00000  0.74553  1.0000
  C   C58       1.0  0.91667  0.08333  0.74553  1.0000
  C   C59       1.0  0.75000  0.25000  0.74561  1.0000
  C   C60       1.0  0.91667  0.33333  0.74549  1.0000
  C   C61       1.0  0.75000  0.50000  0.74781  1.0000
  C   C62       1.0  0.91667  0.58333  0.74520  1.0000
  C   C63       1.0  0.75000  0.75000  0.74769  1.0000
  C   C64       1.0  0.91667  0.83333  0.74520  1.0000
  Fe  Fe1       1.0  0.49960  0.49951  0.49999  1.0000
  C   C65       1.0  0.61379  0.47627  0.40572  1.0000
  C   C66       1.0  0.62292  0.62839  0.40556  1.0000
  C   C67       1.0  0.46400  0.60188  0.40468  1.0000
  C   C68       1.0  0.35671  0.43366  0.40461  1.0000
  C   C69       1.0  0.44915  0.35614  0.40493  1.0000
  C   C70       1.0  0.53329  0.39653  0.59544  1.0000
  C   C71       1.0  0.37468  0.37133  0.59430  1.0000
  C   C72       1.0  0.38522  0.52380  0.59385  1.0000
  C   C73       1.0  0.55021  0.64314  0.59471  1.0000
  C   C74       1.0  0.64153  0.56448  0.59599  1.0000
  H   H1        1.0  0.71863  0.45479  0.40798  1.0000
  H   H2        1.0  0.73685  0.74835  0.40756  1.0000
  H   H3        1.0  0.42791  0.69670  0.40424  1.0000
  H   H4        1.0  0.22173  0.37229  0.40527  1.0000
  H   H5        1.0  0.39947  0.22236  0.40368  1.0000
  H   H6        1.0  0.56724  0.30024  0.59543  1.0000
  H   H7        1.0  0.26121  0.25099  0.59192  1.0000
  H   H8        1.0  0.28208  0.54802  0.59201  1.0000
  H   H9        1.0  0.59964  0.77680  0.59372  1.0000
  H   H10       1.0  0.77654  0.62507  0.59790  1.0000
