data_image0
_chemical_formula_structural       C64FeC10H10
_chemical_formula_sum              "C74 Fe1 H10"
_cell_length_a       9.85973
_cell_length_b       9.85973
_cell_length_c       18
_cell_angle_alpha    90
_cell_angle_beta     90
_cell_angle_gamma    120

_space_group_name_H-M_alt    "P 1"
_space_group_IT_number       1

loop_
  _space_group_symop_operation_xyz
  'x, y, z'

loop_
  _atom_site_type_symbol
  _atom_site_label
  _atom_site_symmetry_multiplicity
  _atom_site_fract_x
  _atom_site_fract_y
  _atom_site_fract_z
  _atom_site_occupancy
  C   C1        1.0  0.00000  0.00000  0.25755  1.0000
  C   C2        1.0  0.16667  0.08333  0.25710  1.0000
  C   C3        1.0  0.00000  0.25000  0.25789  1.0000
  C   C4        1.0  0.16667  0.33333  0.25782  1.0000
  C   C5        1.0  0.00000  0.50000  0.25994  1.0000
  C   C6        1.0  0.16667  0.58333  0.26061  1.0000
  C   C7        1.0  0.00000  0.75000  0.26000  1.0000
  C   C8        1.0  0.16667  0.83333  0.25986  1.0000
  C   C9        1.0  0.25000  0.00000  0.25880  1.0000
  C   C10       1.0  0.41667  0.08333  0.25917  1.0000
  C   C11       1.0  0.25000  0.25000  0.25656  1.0000
  C   C12       1.0  0.41667  0.33333  0.25902  1.0000
  C   C13       1.0  0.25000  0.50000  0.26046  1.0000
  C   C14       1.0  0.41667  0.58333  0.26170  1.0000
  C   C15       1.0  0.25000  0.75000  0.26075  1.0000
  C   C16       1.0  0.41667  0.83333  0.26076  1.0000
  C   C17       1.0  0.50000  0.00000  0.25991  1.0000
  C   C18       1.0  0.66667  0.08333  0.25933  1.0000
  C   C19       1.0  0.50000  0.25000  0.25898  1.0000
  C   C20       1.0  0.66667  0.33333  0.25958  1.0000
  C   C21       1.0  0.50000  0.50000  0.26140  1.0000
  C   C22       1.0  0.66667  0.58333  0.26143  1.0000
  C   C23       1.0  0.50000  0.75000  0.26144  1.0000
  C   C24       1.0  0.66667  0.83333  0.26024  1.0000
  C   C25       1.0  0.75000  0.00000  0.25915  1.0000
  C   C26       1.0  0.91667  0.08333  0.25777  1.0000
  C   C27       1.0  0.75000  0.25000  0.25920  1.0000
  C   C28       1.0  0.91667  0.33333  0.25918  1.0000
  C   C29       1.0  0.75000  0.50000  0.26053  1.0000
  C   C30       1.0  0.91667  0.58333  0.26036  1.0000
  C   C31       1.0  0.75000  0.75000  0.26047  1.0000
  C   C32       1.0  0.91667  0.83333  0.25933  1.0000
  C   C33       1.0  0.00000  0.00000  0.74170  1.0000
  C   C34       1.0  0.16667  0.08333  0.74070  1.0000
  C   C35       1.0  0.00000  0.25000  0.74009  1.0000
  C   C36       1.0  0.16667  0.33333  0.74031  1.0000
  C   C37       1.0  0.00000  0.50000  0.73900  1.0000
  C   C38       1.0  0.16667  0.58333  0.73780  1.0000
  C   C39       1.0  0.00000  0.75000  0.74100  1.0000
  C   C40       1.0  0.16667  0.83333  0.73842  1.0000
  C   C41       1.0  0.25000  0.00000  0.73916  1.0000
  C   C42       1.0  0.41667  0.08333  0.73841  1.0000
  C   C43       1.0  0.25000  0.25000  0.74117  1.0000
  C   C44       1.0  0.41667  0.33333  0.74190  1.0000
  C   C45       1.0  0.25000  0.50000  0.73888  1.0000
  C   C46       1.0  0.41667  0.58333  0.73995  1.0000
  C   C47       1.0  0.25000  0.75000  0.73686  1.0000
  C   C48       1.0  0.41667  0.83333  0.73660  1.0000
  C   C49       1.0  0.50000  0.00000  0.73732  1.0000
  C   C50       1.0  0.66667  0.08333  0.73851  1.0000
  C   C51       1.0  0.50000  0.25000  0.74046  1.0000
  C   C52       1.0  0.66667  0.33333  0.74054  1.0000
  C   C53       1.0  0.50000  0.50000  0.74204  1.0000
  C   C54       1.0  0.66667  0.58333  0.74409  1.0000
  C   C55       1.0  0.50000  0.75000  0.73875  1.0000
  C   C56       1.0  0.66667  0.83333  0.74114  1.0000
  C   C57       1.0  0.75000  0.00000  0.74002  1.0000
  C   C58       1.0  0.91667  0.08333  0.74114  1.0000
  C   C59       1.0  0.75000  0.25000  0.73944  1.0000
  C   C60       1.0  0.91667  0.33333  0.73959  1.0000
  C   C61       1.0  0.75000  0.50000  0.74249  1.0000
  C   C62       1.0  0.91667  0.58333  0.74079  1.0000
  C   C63       1.0  0.75000  0.75000  0.74447  1.0000
  C   C64       1.0  0.91667  0.83333  0.74296  1.0000
  Fe  Fe1       1.0  0.47722  0.49019  0.50067  1.0000
  C   C65       1.0  0.69494  0.69847  0.49523  1.0000
  C   C66       1.0  0.62369  0.68767  0.56753  1.0000
  C   C67       1.0  0.47323  0.67857  0.55560  1.0000
  C   C68       1.0  0.45179  0.68479  0.47571  1.0000
  C   C69       1.0  0.58876  0.69696  0.43841  1.0000
  C   C70       1.0  0.48245  0.31607  0.43588  1.0000
  C   C71       1.0  0.33192  0.30941  0.42858  1.0000
  C   C72       1.0  0.25961  0.28000  0.50186  1.0000
  C   C73       1.0  0.36499  0.26769  0.55467  1.0000
  C   C74       1.0  0.50282  0.29058  0.51404  1.0000
  H   H1        1.0  0.80956  0.69664  0.48380  1.0000
  H   H2        1.0  0.67383  0.67928  0.62387  1.0000
  H   H3        1.0  0.38479  0.66296  0.60155  1.0000
  H   H4        1.0  0.34076  0.67021  0.44648  1.0000
  H   H5        1.0  0.60280  0.68867  0.37544  1.0000
  H   H6        1.0  0.57487  0.35004  0.38956  1.0000
  H   H7        1.0  0.28577  0.34093  0.37665  1.0000
  H   H8        1.0  0.14379  0.27750  0.51598  1.0000
  H   H9        1.0  0.34568  0.24803  0.61785  1.0000
  H   H10       1.0  0.61191  0.29553  0.54089  1.0000
