data_image0
_chemical_formula_structural       C64FeC10H10
_chemical_formula_sum              "C74 Fe1 H10"
_cell_length_a       9.85973
_cell_length_b       9.85973
_cell_length_c       18
_cell_angle_alpha    90
_cell_angle_beta     90
_cell_angle_gamma    120

_space_group_name_H-M_alt    "P 1"
_space_group_IT_number       1

loop_
  _space_group_symop_operation_xyz
  'x, y, z'

loop_
  _atom_site_type_symbol
  _atom_site_label
  _atom_site_symmetry_multiplicity
  _atom_site_fract_x
  _atom_site_fract_y
  _atom_site_fract_z
  _atom_site_occupancy
  C   C1        1.0  0.00000  0.00000  0.25883  1.0000
  C   C2        1.0  0.16667  0.08333  0.25718  1.0000
  C   C3        1.0  0.00000  0.25000  0.25849  1.0000
  C   C4        1.0  0.16667  0.33333  0.25739  1.0000
  C   C5        1.0  0.00000  0.50000  0.25937  1.0000
  C   C6        1.0  0.16667  0.58333  0.26012  1.0000
  C   C7        1.0  0.00000  0.75000  0.26001  1.0000
  C   C8        1.0  0.16667  0.83333  0.25962  1.0000
  C   C9        1.0  0.25000  0.00000  0.25839  1.0000
  C   C10       1.0  0.41667  0.08333  0.25838  1.0000
  C   C11       1.0  0.25000  0.25000  0.25586  1.0000
  C   C12       1.0  0.41667  0.33333  0.25770  1.0000
  C   C13       1.0  0.25000  0.50000  0.25984  1.0000
  C   C14       1.0  0.41667  0.58333  0.26119  1.0000
  C   C15       1.0  0.25000  0.75000  0.26040  1.0000
  C   C16       1.0  0.41667  0.83333  0.26074  1.0000
  C   C17       1.0  0.50000  0.00000  0.25975  1.0000
  C   C18       1.0  0.66667  0.08333  0.25981  1.0000
  C   C19       1.0  0.50000  0.25000  0.25788  1.0000
  C   C20       1.0  0.66667  0.33333  0.25896  1.0000
  C   C21       1.0  0.50000  0.50000  0.26057  1.0000
  C   C22       1.0  0.66667  0.58333  0.26109  1.0000
  C   C23       1.0  0.50000  0.75000  0.26145  1.0000
  C   C24       1.0  0.66667  0.83333  0.26082  1.0000
  C   C25       1.0  0.75000  0.00000  0.26028  1.0000
  C   C26       1.0  0.91667  0.08333  0.25909  1.0000
  C   C27       1.0  0.75000  0.25000  0.25925  1.0000
  C   C28       1.0  0.91667  0.33333  0.25920  1.0000
  C   C29       1.0  0.75000  0.50000  0.26004  1.0000
  C   C30       1.0  0.91667  0.58333  0.26000  1.0000
  C   C31       1.0  0.75000  0.75000  0.26097  1.0000
  C   C32       1.0  0.91667  0.83333  0.26023  1.0000
  C   C33       1.0  0.00000  0.00000  0.74110  1.0000
  C   C34       1.0  0.16667  0.08333  0.74031  1.0000
  C   C35       1.0  0.00000  0.25000  0.73969  1.0000
  C   C36       1.0  0.16667  0.33333  0.74034  1.0000
  C   C37       1.0  0.00000  0.50000  0.74030  1.0000
  C   C38       1.0  0.16667  0.58333  0.73939  1.0000
  C   C39       1.0  0.00000  0.75000  0.74214  1.0000
  C   C40       1.0  0.16667  0.83333  0.73965  1.0000
  C   C41       1.0  0.25000  0.00000  0.73963  1.0000
  C   C42       1.0  0.41667  0.08333  0.73962  1.0000
  C   C43       1.0  0.25000  0.25000  0.74145  1.0000
  C   C44       1.0  0.41667  0.33333  0.74346  1.0000
  C   C45       1.0  0.25000  0.50000  0.73995  1.0000
  C   C46       1.0  0.41667  0.58333  0.74169  1.0000
  C   C47       1.0  0.25000  0.75000  0.73898  1.0000
  C   C48       1.0  0.41667  0.83333  0.73884  1.0000
  C   C49       1.0  0.50000  0.00000  0.73908  1.0000
  C   C50       1.0  0.66667  0.08333  0.73971  1.0000
  C   C51       1.0  0.50000  0.25000  0.74200  1.0000
  C   C52       1.0  0.66667  0.33333  0.74222  1.0000
  C   C53       1.0  0.50000  0.50000  0.74417  1.0000
  C   C54       1.0  0.66667  0.58333  0.74612  1.0000
  C   C55       1.0  0.50000  0.75000  0.74088  1.0000
  C   C56       1.0  0.66667  0.83333  0.74273  1.0000
  C   C57       1.0  0.75000  0.00000  0.74084  1.0000
  C   C58       1.0  0.91667  0.08333  0.74083  1.0000
  C   C59       1.0  0.75000  0.25000  0.74027  1.0000
  C   C60       1.0  0.91667  0.33333  0.73996  1.0000
  C   C61       1.0  0.75000  0.50000  0.74441  1.0000
  C   C62       1.0  0.91667  0.58333  0.74260  1.0000
  C   C63       1.0  0.75000  0.75000  0.74562  1.0000
  C   C64       1.0  0.91667  0.83333  0.74333  1.0000
  Fe  Fe1       1.0  0.47612  0.49233  0.49984  1.0000
  C   C65       1.0  0.69239  0.70252  0.49692  1.0000
  C   C66       1.0  0.61787  0.68838  0.56883  1.0000
  C   C67       1.0  0.46804  0.67997  0.55578  1.0000
  C   C68       1.0  0.44945  0.68799  0.47568  1.0000
  C   C69       1.0  0.58845  0.70267  0.43937  1.0000
  C   C70       1.0  0.48097  0.31859  0.43259  1.0000
  C   C71       1.0  0.33012  0.31177  0.42678  1.0000
  C   C72       1.0  0.25987  0.28035  0.50060  1.0000
  C   C73       1.0  0.36736  0.26861  0.55244  1.0000
  C   C74       1.0  0.50352  0.29153  0.51009  1.0000
  H   H1        1.0  0.80930  0.70387  0.48700  1.0000
  H   H2        1.0  0.66503  0.67503  0.62542  1.0000
  H   H3        1.0  0.37643  0.66046  0.60108  1.0000
  H   H4        1.0  0.34029  0.67609  0.44522  1.0000
  H   H5        1.0  0.60430  0.69828  0.37606  1.0000
  H   H6        1.0  0.57296  0.35284  0.38585  1.0000
  H   H7        1.0  0.28365  0.34508  0.37532  1.0000
  H   H8        1.0  0.14373  0.27614  0.51630  1.0000
  H   H9        1.0  0.35004  0.24985  0.61603  1.0000
  H   H10       1.0  0.61496  0.29726  0.53486  1.0000
